 PDE 2000 01 08 16 47 20.60  -16.9200 -174.2500 183.4 7.2 6.6 TONGA ISLANDS
event name:         C010800G
time shift:           9.6000
half duration:        9.7000
latitude:           -16.8400
longitude:         -173.8100
depth:              162.4000
Mrr:           -1.180000E+25
Mtt:           -5.990000E+25
Mpp:            7.170000E+25
Mrt:            3.690000E+25
Mrp:            6.785000E+26
Mtp:            1.012000E+26

 PDE 2000 02 25 01 43 58.60  -19.5300  173.8200  33.0 7.1 7.1 VANUATU ISLANDS REGION
event name:         C022500B
time shift:           6.6000
half duration:        8.9000
latitude:           -19.5500
longitude:          174.1700
depth:               16.8000
Mrr:            4.540000E+25
Mtt:           -5.030000E+26
Mpp:            4.576000E+26
Mrt:            3.760000E+25
Mrp:            1.525000E+26
Mtp:            1.770000E+25

 PDE 2000 03 28 11 00 22.50   22.3400  143.7300 126.5 7.6 7.6 VOLCANO ISLANDS, JAPAN REGION
event name:         M032800C
time shift:           8.8000
half duration:       17.6000
latitude:            22.3200
longitude:          143.7600
depth:               99.7000
Mrr:           -1.800000E+25
Mtt:            8.750000E+26
Mpp:           -8.570000E+26
Mrt:           -2.938000E+27
Mrp:            1.131000E+27
Mtp:           -5.760000E+26

 PDE 2000 05 04 04 21 16.20   -1.1100  123.5700  26.0 7.5 7.5 SULAWESI, INDONESIA
event name:         C050400A
time shift:          17.2000
half duration:       15.1000
latitude:            -1.2900
longitude:          123.5900
depth:               18.6000
Mrr:            8.120000E+26
Mtt:            1.839000E+27
Mpp:           -2.651000E+27
Mrt:           -4.550000E+26
Mrp:            8.390000E+26
Mtp:           -5.500000E+25

 PDE 2000 05 12 18 43 18.10  -23.5500  -66.4500 225.0 7.2 0.0 JUJUY PROVINCE, ARGENTINA
event name:         C051200C
time shift:          10.8000
half duration:        8.4000
latitude:           -23.7200
longitude:          -66.8500
depth:              226.6000
Mrr:           -2.153000E+26
Mtt:           -1.510000E+25
Mpp:            2.304000E+26
Mrt:           -4.850000E+25
Mrp:           -6.164000E+26
Mtp:            8.720000E+25

 PDE 2000 06 04 16 28 26.20   -4.7200  102.0900  33.0 7.8 8.0 SOUTHERN SUMATRA, INDONESIA
event name:         M060400D
time shift:          20.3000
half duration:       28.6000
latitude:            -4.7300
longitude:          101.9400
depth:               43.9000
Mrr:            3.850000E+27
Mtt:           -3.961000E+27
Mpp:            1.110000E+26
Mrt:            4.000000E+25
Mrp:           -2.720000E+27
Mtp:           -5.995000E+27

 PDE 2000 06 18 14 44 13.30  -13.8000   97.4500  10.0 7.9 7.8 SOUTH INDIAN OCEAN
event name:         C061800A
time shift:          14.3000
half duration:       25.7000
latitude:           -13.4700
longitude:           97.1700
depth:               15.0000
Mrr:            1.580000E+27
Mtt:            2.772000E+27
Mpp:           -4.353000E+27
Mrt:            2.966000E+27
Mrp:            3.472000E+27
Mtp:           -5.894000E+27

 PDE 2000 08 06 07 27 12.90   28.8600  139.5600 394.8 7.3 0.0 BONIN ISLANDS, JAPAN REGION
event name:         C080600B
time shift:          10.7000
half duration:       10.3000
latitude:            28.8900
longitude:          139.6800
depth:              411.3000
Mrr:           -6.187000E+26
Mtt:            3.475000E+26
Mpp:            2.712000E+26
Mrt:            8.210000E+25
Mrp:           -9.323000E+26
Mtp:           -4.564000E+26

 PDE 2000 11 16 04 54 56.70   -3.9800  152.1700  33.0 8.0 8.2 NEW IRELAND REGION, P.N.G.
event name:         M111600B
time shift:          39.8000
half duration:       21.9000
latitude:            -4.5600
longitude:          152.7900
depth:               24.0000
Mrr:            3.010000E+26
Mtt:            7.782000E+27
Mpp:           -8.083000E+27
Mrt:           -8.537000E+27
Mrp:           -3.624000E+27
Mtp:           -2.598000E+27

 PDE 2000 11 16 07 42 16.90   -5.2300  153.1000  30.0 7.8 7.8 NEW IRELAND REGION, P.N.G.
event name:         C111600C
time shift:          27.6000
half duration:       22.6000
latitude:            -5.0300
longitude:          153.1700
depth:               31.2000
Mrr:            3.250000E+27
Mtt:           -2.836000E+27
Mpp:           -4.140000E+26
Mrt:            5.269000E+27
Mrp:            1.964000E+27
Mtp:           -9.330000E+26

 PDE 2000 11 17 21 01 56.50   -5.5000  151.7800  33.0 7.8 8.0 NEW BRITAIN REGION, P.N.G.
event name:         C111700Q
time shift:          23.6000
half duration:       21.3000
latitude:            -5.2600
longitude:          152.3400
depth:               17.0000
Mrr:            3.626000E+27
Mtt:           -3.428000E+27
Mpp:           -1.980000E+26
Mrt:            3.965000E+27
Mrp:            5.320000E+26
Mtp:           -1.873000E+27

 PDE 2001 01 01 06 57 04.20    6.9000  126.5800  33.0 7.4 7.2 MINDANAO, PHILIPPINES
event name:         C010101B
time shift:          19.8000
half duration:       12.0000
latitude:             6.7300
longitude:          127.0700
depth:               44.0000
Mrr:            1.484000E+27
Mtt:            1.910000E+26
Mpp:           -1.675000E+27
Mrt:            5.720000E+26
Mrp:            8.700000E+25
Mtp:           -3.710000E+26

 PDE 2001 01 09 16 49 28.00  -14.9300  167.1700 103.0 7.0 6.6 VANUATU ISLANDS
event name:         C010901G
time shift:           9.9000
half duration:        7.9000
latitude:           -14.9000
longitude:          167.1100
depth:              114.4000
Mrr:            1.386000E+26
Mtt:            4.550000E+25
Mpp:           -1.842000E+26
Mrt:           -2.983000E+26
Mrp:           -1.230000E+25
Mtp:            2.451000E+26

 PDE 2001 01 13 17 33 32.40   13.0500  -88.6600  60.0 7.7 7.8 EL SALVADOR
event name:         C011301C
time shift:          13.4000
half duration:       20.6000
latitude:            12.9700
longitude:          -89.1300
depth:               56.0000
Mrr:           -4.239000E+27
Mtt:            2.921000E+27
Mpp:            1.318000E+27
Mrt:            1.202000E+27
Mrp:           -1.118000E+27
Mtp:           -2.012000E+27

 PDE 2001 01 26 03 16 40.50   23.4200   70.2300  16.0 7.6 8.0 SOUTHERN INDIA
event name:         M012601A
time shift:          14.4000
half duration:       24.1000
latitude:            23.6300
longitude:           70.2400
depth:               19.8000
Mrr:            2.338000E+27
Mtt:           -3.161000E+27
Mpp:            8.230000E+26
Mrt:            1.338000E+27
Mrp:            1.386000E+27
Mtp:            1.130000E+26

 PDE 2001 02 13 19 28 30.30   -4.6800  102.5600  36.0 7.3 7.2 SOUTHERN SUMATRA, INDONESIA
event name:         C021301D
time shift:          14.8000
half duration:       10.6000
latitude:            -5.4000
longitude:          102.3600
depth:               21.2000
Mrr:            5.973000E+26
Mtt:           -3.774000E+26
Mpp:           -2.199000E+26
Mrt:            8.621000E+26
Mrp:           -4.963000E+26
Mtp:            3.048000E+26

 PDE 2001 02 24 07 23 48.70    1.2700  126.2500  35.0 7.0 7.0 NORTHERN MOLUCCA SEA
event name:         C022401A
time shift:           9.1000
half duration:        8.3000
latitude:             1.5500
longitude:          126.4200
depth:               42.8000
Mrr:            4.422000E+26
Mtt:           -7.970000E+25
Mpp:           -3.625000E+26
Mrt:            8.070000E+25
Mrp:            2.530000E+25
Mtp:           -1.652000E+26

 PDE 2001 06 03 02 41 57.20  -29.6700 -178.6300 178.1 7.1 0.0 KERMADEC ISLANDS, NEW ZEALAND
event name:         C060301A
time shift:          12.5000
half duration:        9.3000
latitude:           -29.3700
longitude:         -178.2300
depth:              199.3000
Mrr:            3.985000E+26
Mtt:            9.980000E+25
Mpp:           -4.983000E+26
Mrt:           -1.731000E+26
Mrp:            2.962000E+26
Mtp:           -2.263000E+26

 PDE 2001 06 23 20 33 14.10  -16.2600  -73.6400  33.0 8.4 8.2 NEAR COAST OF PERU
event name:         M062301E
time shift:          69.2000
half duration:       43.2000
latitude:           -17.2800
longitude:          -72.7100
depth:               29.6000
Mrr:            2.245000E+28
Mtt:           -5.470000E+27
Mpp:           -1.698000E+28
Mrt:            1.339000E+28
Mrp:           -3.728000E+28
Mtp:            1.444000E+28

 PDE 2001 07 07 09 38 43.50  -17.5400  -72.0800  33.0 7.6 7.3 NEAR COAST OF PERU
event name:         C070701F
time shift:          18.3000
half duration:       14.0000
latitude:           -17.4500
longitude:          -72.4500
depth:               25.0000
Mrr:            1.138000E+27
Mtt:           -2.100000E+26
Mpp:           -9.280000E+26
Mrt:            6.770000E+26
Mrp:           -2.845000E+27
Mtp:            7.710000E+26

 PDE 2001 08 21 06 52 06.20  -36.8100 -179.5700  33.0 7.1 7.1 EAST OF NORTH ISLAND, N.Z.
event name:         C082101B
time shift:           8.1000
half duration:       10.2000
latitude:           -36.7000
longitude:         -179.0800
depth:               59.0000
Mrr:            4.655000E+26
Mtt:           -1.746000E+26
Mpp:           -2.909000E+26
Mrt:            6.390000E+25
Mrp:           -1.674000E+26
Mtp:           -2.621000E+26

 PDE 2001 10 19 03 28 44.50   -4.1000  123.9100  33.0 7.5 7.3 BANDA SEA
event name:         C101901A
time shift:          13.5000
half duration:       13.6000
latitude:            -4.3100
longitude:          124.1100
depth:               18.8000
Mrr:            1.700000E+25
Mtt:           -1.150000E+26
Mpp:            9.800000E+25
Mrt:            4.240000E+26
Mrp:            1.640000E+26
Mtp:            1.797000E+27

 PDE 2001 11 14 09 26 10.00   35.9500   90.5400  10.0 7.8 8.0 QINGHAI, CHINA
event name:         M111401B
time shift:          65.9000
half duration:       25.8000
latitude:            35.8000
longitude:           92.9100
depth:               15.0000
Mrr:           -5.840000E+26
Mtt:            1.650000E+27
Mpp:           -1.067000E+27
Mrt:           -8.240000E+26
Mrp:            3.092000E+27
Mtp:            4.776000E+27

 PDE 2001 12 12 14 02 35.00  -42.8100  124.6900  10.0 7.0 6.7 SOUTH OF AUSTRALIA
event name:         C121201C
time shift:          14.8000
half duration:        8.4000
latitude:           -42.6900
longitude:          124.6700
depth:               16.0000
Mrr:            2.420000E+26
Mtt:            5.360000E+25
Mpp:           -2.956000E+26
Mrt:           -3.250000E+25
Mrp:           -1.360000E+25
Mtp:           -4.386000E+26

 PDE 2002 01 02 17 22 48.80  -17.6000  167.8600  21.0 7.2 7.5 VANUATU ISLANDS
event name:         C010202F
time shift:          17.5000
half duration:       11.2000
latitude:           -17.7800
longitude:          167.8500
depth:               40.0000
Mrr:            2.244000E+26
Mtt:           -7.680000E+25
Mpp:           -1.475000E+26
Mrt:           -1.973000E+26
Mrp:           -7.028000E+26
Mtp:            2.083000E+26

 PDE 2002 03 03 12 08 07.80   36.4300   70.4400 209.0 7.3 0.0 HINDU KUSH REGION, AFGHANISTAN
event name:         C030302C
time shift:          15.8000
half duration:       10.5000
latitude:            36.5700
longitude:           70.4200
depth:              228.5000
Mrr:            8.998000E+26
Mtt:           -8.160000E+26
Mpp:           -8.390000E+25
Mrt:            8.617000E+26
Mrp:           -2.964000E+26
Mtp:            2.048000E+26

 PDE 2002 03 05 21 16 09.10    6.0300  124.2500  31.0 7.5 7.2 MINDANAO, PHILIPPINES
event name:         C030502H
time shift:          14.2000
half duration:       12.9000
latitude:             5.9200
longitude:          124.2500
depth:               28.7000
Mrr:            1.328000E+27
Mtt:           -3.560000E+26
Mpp:           -9.720000E+26
Mrt:            4.460000E+26
Mrp:           -1.256000E+27
Mtp:            7.660000E+26

 PDE 2002 03 31 06 52 50.50   24.2800  122.1800  32.8 7.1 7.4 TAIWAN REGION
event name:         C033102A
time shift:           9.5000
half duration:       10.1000
latitude:            24.1900
longitude:          121.9600
depth:               39.0000
Mrr:            3.991000E+26
Mtt:           -4.829000E+26
Mpp:            8.380000E+25
Mrt:            2.864000E+26
Mrp:            1.252000E+26
Mtp:            3.260000E+25

 PDE 2002 04 26 16 06 07.00   13.0900  144.6200  85.7 7.0 0.0 MARIANA ISLANDS
event name:         C042602G
time shift:           6.9000
half duration:        8.2000
latitude:            13.1500
longitude:          144.6700
depth:               69.1000
Mrr:            2.940000E+25
Mtt:            2.030000E+25
Mpp:           -4.970000E+25
Mrt:            4.071000E+26
Mrp:            1.359000E+26
Mtp:            3.000000E+23

 PDE 2002 06 28 17 19 30.30   43.7500  130.6700 566.0 7.3 0.0 E. RUSSIA-N.E. CHINA BORDER REG.
event name:         C062802B
time shift:           9.8000
half duration:       10.9000
latitude:            43.7400
longitude:          130.4500
depth:              581.5000
Mrr:            5.728000E+26
Mtt:           -2.194000E+26
Mpp:           -3.535000E+26
Mrt:           -1.693000E+26
Mrp:           -9.871000E+26
Mtp:           -9.690000E+25

 PDE 2002 08 19 11 01 01.20  -21.7000 -179.5100 580.0 7.6 0.0 FIJI ISLANDS REGION
event name:         C081902A
time shift:          13.4000
half duration:       16.5000
latitude:           -21.7400
longitude:         -179.0800
depth:              630.9000
Mrr:           -1.695000E+27
Mtt:           -1.540000E+26
Mpp:            1.849000E+27
Mrt:           -1.477000E+27
Mrp:           -2.569000E+27
Mtp:           -3.860000E+26

 PDE 2002 08 19 11 08 24.30  -23.8800  178.4900 675.4 7.7 0.0 SOUTH OF FIJI ISLANDS
event name:         C081902C
time shift:          10.7000
half duration:       17.9000
latitude:           -24.1600
longitude:          178.4900
depth:              699.3000
Mrr:            5.790000E+26
Mtt:           -2.470000E+26
Mpp:           -3.320000E+26
Mrt:           -3.547000E+27
Mrp:           -2.315000E+27
Mtp:            3.500000E+25

 PDE 2002 09 08 18 44 23.70   -3.3000  142.9500  13.0 7.6 7.8 NEAR N COAST OF NEW GUINEA, PNG.
event name:         C090802H
time shift:          14.6000
half duration:       18.4000
latitude:            -3.2700
longitude:          143.3800
depth:               19.5000
Mrr:            1.823000E+27
Mtt:           -1.014000E+27
Mpp:           -8.090000E+26
Mrt:           -2.660000E+26
Mrp:            1.895000E+27
Mtp:            1.575000E+27

 PDE 2002 10 10 10 50 20.60   -1.7600  134.3000  10.0 7.5 7.7 IRIAN JAYA REGION, INDONESIA
event name:         C101002E
time shift:          21.3000
half duration:       15.1000
latitude:            -1.7900
longitude:          134.3000
depth:               15.0000
Mrr:           -4.570000E+26
Mtt:           -2.005000E+27
Mpp:            2.461000E+27
Mrt:            5.300000E+25
Mrp:            4.840000E+26
Mtp:            1.235000E+27

 PDE 2002 11 02 01 26 10.70    2.8200   96.0800  30.0 7.2 7.6 NORTHERN SUMATRA, INDONESIA
event name:         C110202B
time shift:          15.2000
half duration:       12.4000
latitude:             2.6500
longitude:           95.9900
depth:               23.0000
Mrr:            4.544000E+26
Mtt:           -3.014000E+26
Mpp:           -1.530000E+26
Mrt:            5.354000E+26
Mrp:           -5.630000E+26
Mtp:            2.203000E+26

 PDE 2002 11 03 22 12 41.00   63.5200 -147.4400   4.9 7.8 8.5 CENTRAL ALASKA
event name:         M110302J
time shift:          47.0000
half duration:       23.5000
latitude:            63.2300
longitude:         -144.8900
depth:               15.0000
Mrr:            5.130000E+26
Mtt:           -6.038000E+27
Mpp:            5.525000E+27
Mrt:            1.830000E+26
Mrp:            2.615000E+27
Mtp:           -3.937000E+27

 PDE 2002 11 17 04 53 53.50   47.8200  146.2100 459.1 7.3 7.3 NORTHWEST OF KURIL ISLANDS
event name:         C111702C
time shift:           6.9000
half duration:       11.4000
latitude:            47.8100
longitude:          146.4500
depth:              479.8000
Mrr:            1.002000E+26
Mtt:            1.684000E+26
Mpp:           -2.686000E+26
Mrt:           -2.904000E+26
Mrp:           -9.896000E+26
Mtp:            2.310000E+25

 PDE 2003 01 20 08 43 06.10  -10.4900  160.7700  33.0 7.2 7.8 SOLOMON ISLANDS
event name:         C012003B
time shift:          10.0000
half duration:       10.3000
latitude:           -10.4300
longitude:          160.6300
depth:               31.0000
Mrr:            5.480000E+26
Mtt:           -3.600000E+25
Mpp:           -5.120000E+26
Mrt:           -3.840000E+26
Mrp:           -2.400000E+26
Mtp:            6.210000E+26

 PDE 2003 01 22 02 06 34.60   18.7700 -104.1000  24.0 7.5 7.6 NEAR COAST OF JALISCO, MEXICO
event name:         C012203A
time shift:          14.3000
half duration:       11.9000
latitude:            18.8600
longitude:         -103.9000
depth:               26.0000
Mrr:            7.940000E+26
Mtt:           -6.170000E+26
Mpp:           -1.770000E+26
Mrt:            1.810000E+27
Mrp:           -5.370000E+26
Mtp:            3.360000E+26

 PDE 2003 03 17 16 36 17.30   51.2700  177.9800  33.0 7.0 6.7 RAT ISLANDS, ALEUTIAN ISLANDS
event name:         C031703E
time shift:           9.4000
half duration:        7.8000
latitude:            51.3300
longitude:          177.5800
depth:               27.0000
Mrr:            1.900000E+26
Mtt:           -2.580000E+26
Mpp:            6.790000E+25
Mrt:            2.900000E+26
Mrp:            1.940000E+26
Mtp:           -4.640000E+25

 PDE 2003 06 20 06 19 38.90   -7.6100  -71.7200 558.1 7.0 0.0 WESTERN BRAZIL
event name:         C062003D
time shift:           8.5000
half duration:        7.9000
latitude:            -7.3700
longitude:          -71.8900
depth:              556.2000
Mrr:           -4.040000E+26
Mtt:            4.620000E+25
Mpp:            3.570000E+26
Mrt:           -1.280000E+26
Mrp:           -4.070000E+25
Mtp:           -1.740000E+26

 PDE 2003 07 15 20 27 50.50   -2.6000   68.3800  10.0 7.5 7.6 CARLSBERG RIDGE
event name:         C071503F
time shift:          47.1000
half duration:       14.5000
latitude:            -1.4200
longitude:           69.4700
depth:               15.0000
Mrr:           -4.480000E+26
Mtt:            2.440000E+27
Mpp:           -1.990000E+27
Mrt:           -8.090000E+26
Mrp:           -5.420000E+26
Mtp:            7.400000E+26

 PDE 2003 08 04 04 37 20.10  -60.5300  -43.4100  10.0 7.6 7.5 SCOTIA SEA
event name:         C080403C
time shift:          22.4000
half duration:       14.7000
latitude:           -60.8000
longitude:          -43.2100
depth:               15.0000
Mrr:           -1.040000E+27
Mtt:            1.550000E+27
Mpp:           -5.140000E+26
Mrt:            6.470000E+26
Mrp:            1.960000E+27
Mtp:            1.150000E+27

 PDE 2003 08 21 12 12 49.80  -45.1000  167.1400  28.0 7.2 7.5 SOUTH ISLAND, NEW ZEALAND
event name:         C082103D
time shift:           9.8000
half duration:        9.5000
latitude:           -45.0100
longitude:          166.8700
depth:               31.8000
Mrr:            4.990000E+26
Mtt:           -1.070000E+26
Mpp:           -3.920000E+26
Mrt:           -2.490000E+26
Mrp:           -4.640000E+26
Mtp:           -2.800000E+26

 PDE 2003 09 25 19 50 06.40   41.8100  143.9100  27.0 8.3 8.1 HOKKAIDO, JAPAN REGION
event name:         M092503C
time shift:          31.8000
half duration:       33.5000
latitude:            42.2100
longitude:          143.8400
depth:               28.2000
Mrr:            7.770000E+27
Mtt:           -4.110000E+27
Mpp:           -3.660000E+27
Mrt:            1.320000E+28
Mrp:            2.590000E+28
Mtp:           -6.620000E+27

 PDE 2003 09 25 21 08 00.00   41.7700  143.5900  33.0 7.3 7.4 HOKKAIDO, JAPAN REGION
event name:         C092503K
time shift:          19.5000
half duration:       11.4000
latitude:            41.7500
longitude:          143.6200
depth:               47.3000
Mrr:            8.070000E+26
Mtt:           -2.490000E+26
Mpp:           -5.590000E+26
Mrt:            5.760000E+26
Mrp:            8.640000E+26
Mtp:           -2.730000E+26

 PDE 2003 09 27 11 33 25.10   50.0400   87.8100  16.0 7.2 7.5 SOUTHWESTERN SIBERIA, RUSSIA
event name:         C092703F
time shift:          11.1000
half duration:       10.3000
latitude:            50.0200
longitude:           87.8600
depth:               15.0000
Mrr:            2.160000E+26
Mtt:           -9.420000E+26
Mpp:            7.260000E+26
Mrt:            2.400000E+25
Mrp:           -3.860000E+26
Mtp:           -1.300000E+25

 PDE 2003 11 17 06 43 06.80   51.1500  178.6500  33.0 7.8 7.2 RAT ISLANDS, ALEUTIAN ISLANDS
event name:         C111703B
time shift:          24.2000
half duration:       19.5000
latitude:            51.1400
longitude:          177.8600
depth:               21.7000
Mrr:            2.590000E+27
Mtt:           -3.080000E+27
Mpp:            4.910000E+26
Mrt:            4.000000E+27
Mrp:            1.880000E+27
Mtp:           -5.120000E+26

 PDE 2003 12 27 16 00 59.50  -22.0100  169.7700  10.0 7.2 7.1 SOUTHEAST OF LOYALTY ISLANDS
event name:         C122703G
time shift:          22.3000
half duration:       10.3000
latitude:           -21.9900
longitude:          169.8100
depth:               23.0000
Mrr:            7.860000E+26
Mtt:           -2.960000E+26
Mpp:           -4.900000E+26
Mrt:            3.510000E+26
Mrp:           -3.760000E+26
Mtp:            4.060000E+26

 PDE 2004 01 03 16 23 21.00  -22.2500  169.6800  22.0 7.1 7.1 SOUTHEAST OF LOYALTY ISLANDS
event name:         C010304J
time shift:           9.7000
half duration:        8.8000
latitude:           -22.4100
longitude:          169.7200
depth:               15.0000
Mrr:           -5.800000E+26
Mtt:            3.760000E+26
Mpp:            2.040000E+26
Mrt:           -1.610000E+26
Mrp:            3.600000E+24
Mtp:           -2.600000E+26

 PDE 2004 02 07 02 42 35.20   -4.0000  135.0200  10.0 7.3 7.5 IRIAN JAYA REGION, INDONESIA
event name:         C020704A
time shift:           8.5000
half duration:       10.4000
latitude:            -4.0300
longitude:          134.7800
depth:               12.0000
Mrr:           -1.810000E+26
Mtt:           -1.560000E+26
Mpp:            3.380000E+26
Mrt:            8.200000E+25
Mrp:           -3.380000E+26
Mtp:            8.720000E+26

 PDE 2004 07 15 04 27 14.70  -17.6600 -178.7600 565.5 7.0 0.0 FIJI ISLANDS REGION
event name:         C071504C
time shift:           4.8000
half duration:        8.2000
latitude:           -17.6800
longitude:         -178.5200
depth:              577.2000
Mrr:            3.280000E+26
Mtt:           -1.420000E+26
Mpp:           -1.870000E+26
Mrt:            2.490000E+26
Mrp:            5.420000E+25
Mtp:            2.900000E+26

 PDE 2004 07 25 14 35 19.10   -2.4300  103.9800 582.1 7.3 0.0 SOUTHERN SUMATRA, INDONESIA
event name:         C072504B
time shift:           6.3000
half duration:       10.6000
latitude:            -2.6800
longitude:          104.3800
depth:              600.5000
Mrr:           -8.040000E+26
Mtt:            4.630000E+26
Mpp:            3.410000E+26
Mrt:           -1.750000E+26
Mrp:           -4.480000E+26
Mtp:           -5.680000E+26

 PDE 2004 09 05 10 07 07.80   33.0700  136.6200  14.0 7.2 7.0 NEAR S. COAST OF WESTERN HONSHU
event name:         C090504A
time shift:           8.2000
half duration:        9.8000
latitude:            32.9400
longitude:          137.0000
depth:               16.0000
Mrr:            6.650000E+26
Mtt:           -8.280000E+26
Mpp:            1.630000E+26
Mrt:            1.990000E+26
Mrp:            5.600000E+25
Mtp:            8.000000E+24

 PDE 2004 09 05 14 57 18.60   33.1800  137.0700  10.0 7.4 7.1 NEAR S. COAST OF HONSHU, JAPAN
event name:         C090504D
time shift:          24.6000
half duration:       12.0000
latitude:            33.1300
longitude:          137.2200
depth:               12.0000
Mrr:            1.110000E+27
Mtt:           -1.770000E+27
Mpp:            6.620000E+26
Mrt:           -8.000000E+24
Mrp:            1.050000E+26
Mtp:            4.500000E+25

 PDE 2004 11 11 21 26 41.20   -8.1500  124.8700  10.0 7.5 7.3 TIMOR REGION
event name:         C111104M
time shift:          16.8000
half duration:       13.5000
latitude:            -7.8700
longitude:          125.1200
depth:               17.0000
Mrr:            1.600000E+27
Mtt:           -1.590000E+27
Mpp:           -4.000000E+24
Mrt:           -1.340000E+27
Mrp:            5.600000E+25
Mtp:           -3.800000E+26

 PDE 2004 11 15 09 06 56.60    4.7000  -77.5100  15.0 7.2 7.1 NEAR WEST COAST OF COLOMBIA
event name:         C111504C
time shift:           4.9000
half duration:        9.7000
latitude:             4.7200
longitude:          -77.5700
depth:               16.0000
Mrr:            2.800000E+26
Mtt:           -1.260000E+25
Mpp:           -2.670000E+26
Mrt:            5.310000E+25
Mrp:           -7.030000E+26
Mtp:           -4.570000E+25

 PDE 2004 11 22 20 26 23.90  -46.6800  164.7200  10.0 7.1 7.1 OFF W. COAST OF S. ISLAND, N.Z.
event name:         C112204C
time shift:          11.1000
half duration:        8.6000
latitude:           -46.3600
longitude:          164.9100
depth:               40.0000
Mrr:            5.070000E+26
Mtt:           -1.580000E+26
Mpp:           -3.490000E+26
Mrt:           -4.210000E+25
Mrp:           -1.830000E+26
Mtp:           -2.710000E+26

 PDE 2004 11 26 02 25 03.30   -3.6100  135.4000  10.0 7.1 7.2 IRIAN JAYA REGION, INDONESIA
event name:         C112604A
time shift:           8.9000
half duration:        8.2000
latitude:            -3.5500
longitude:          135.5400
depth:               12.0000
Mrr:           -2.600000E+24
Mtt:           -8.370000E+25
Mpp:            8.640000E+25
Mrt:           -4.580000E+26
Mrp:           -9.700000E+24
Mtp:           -2.950000E+26

 PDE 2004 12 23 14 59 04.40  -49.3100  161.3500  10.0 8.1 7.7 NORTH OF MACQUARIE ISLAND
event name:         M122304A
time shift:          26.5000
half duration:       26.7000
latitude:           -49.9100
longitude:          161.2500
depth:               27.5000
Mrr:            1.080000E+27
Mtt:            8.740000E+27
Mpp:           -9.820000E+27
Mrt:            4.880000E+27
Mrp:           -3.170000E+27
Mtp:           -1.210000E+28

 PDE 2004 12 26 00 58 50.00    3.3000   95.7800  10.0 9.0 8.9 OFF W COAST OF NORTHERN SUMATRA
event name:         M122604A
time shift:         139.0000
half duration:       95.0000
latitude:             3.0900
longitude:           94.2600
depth:               28.6000
Mrr:            1.040000E+29
Mtt:           -4.270000E+28
Mpp:           -6.100000E+28
Mrt:            2.980000E+29
Mrp:           -2.400000E+29
Mtp:            4.260000E+28

 PDE 2004 12 26 04 21 29.80    6.9100   92.9600  39.2 7.2 7.5 NICOBAR ISLANDS, INDIA REGION
event name:         C122604B
time shift:           6.7000
half duration:       11.4000
latitude:             6.6100
longitude:           92.7900
depth:               13.6000
Mrr:            5.260000E+26
Mtt:           -8.430000E+25
Mpp:           -4.410000E+26
Mrt:            3.950000E+26
Mrp:           -2.910000E+26
Mtp:            2.100000E+26

 PDE 2005 02 05 12 23 18.90    5.2900  123.3400 525.0 7.1 0.0 MINDANAO, PHILIPPINES
event name:   C200502051223A
time shift:           4.7000
half duration:        8.5000
latitude:             5.4700
longitude:          123.6700
depth:              530.6000
Mrr:           -2.350000E+26
Mtt:            9.400000E+24
Mpp:            2.260000E+26
Mrt:           -3.800000E+25
Mrp:           -4.660000E+26
Mtp:           -4.230000E+25

 PDE 2005 03 02 10 42 12.20   -6.5300  129.9300 201.7 7.1 0.0 BANDA SEA
event name:   C200503021042A
time shift:           4.7000
half duration:        8.7000
latitude:            -6.5400
longitude:          129.9900
depth:              196.1000
Mrr:            3.370000E+25
Mtt:           -3.430000E+26
Mpp:            3.100000E+26
Mrt:            2.970000E+26
Mrp:            3.600000E+26
Mtp:           -5.950000E+25

 PDE 2005 03 28 16 09 36.50    2.0900   97.1100  30.0 8.6 8.4 NORTHERN SUMATRA, INDONESIA
event name:   C200503281609A
time shift:          55.0000
half duration:       49.4000
latitude:             1.6700
longitude:           97.0700
depth:               25.8000
Mrr:            2.660000E+28
Mtt:           -1.140000E+28
Mpp:           -1.530000E+28
Mrt:            8.390000E+28
Mrp:           -5.680000E+28
Mtp:            1.480000E+28

 PDE 2005 06 13 22 44 33.90  -19.9900  -69.2000 115.6 7.8 0.0 NORTHERN CHILE
event name:   C200506132244A
time shift:           6.3000
half duration:       18.3000
latitude:           -20.0200
longitude:          -69.2300
depth:               94.5000
Mrr:           -3.700000E+27
Mtt:           -2.720000E+26
Mpp:            3.970000E+27
Mrt:            6.150000E+26
Mrp:           -3.630000E+27
Mtp:           -2.360000E+26

 PDE 2005 06 15 02 50 53.20   41.3000 -125.9700  10.0 7.2 7.1 OFF COAST OF NORTHERN CALIFORNIA
event name:   C200506150250A
time shift:          12.2000
half duration:        9.9000
latitude:            41.1500
longitude:         -126.4200
depth:               20.4000
Mrr:            1.300000E+25
Mtt:           -8.270000E+26
Mpp:            8.140000E+26
Mrt:            2.600000E+25
Mrp:            1.140000E+26
Mtp:            5.100000E+25

 PDE 2005 07 24 15 42 06.20    7.9200   92.1900  16.0 7.2 7.5 NICOBAR ISLANDS, INDIA REGION
event name:   C200507241542A
time shift:          10.0000
half duration:       10.1000
latitude:             7.9200
longitude:           91.8800
depth:               12.0000
Mrr:            1.900000E+25
Mtt:           -7.200000E+26
Mpp:            7.020000E+26
Mrt:           -3.120000E+26
Mrp:            1.290000E+26
Mtp:           -4.130000E+26

 PDE 2005 08 16 02 46 28.40   38.2800  142.0400  36.0 7.2 6.8 NEAR EAST COAST OF HONSHU, JAPAN
event name:   C200508160246A
time shift:          11.9000
half duration:        9.4000
latitude:            38.2400
longitude:          142.0500
depth:               37.0000
Mrr:            3.960000E+26
Mtt:           -2.810000E+25
Mpp:           -3.680000E+26
Mrt:            2.680000E+26
Mrp:            5.900000E+26
Mtp:           -1.320000E+26
